Version 4
SHEET 1 1304 680
WIRE -48 -80 -128 -80
WIRE 144 -80 16 -80
WIRE 272 -80 144 -80
WIRE 384 -80 352 -80
WIRE 144 -48 144 -80
WIRE -128 64 -128 -80
WIRE -64 64 -128 64
WIRE 48 64 16 64
WIRE 144 64 144 32
WIRE 144 64 128 64
WIRE 272 64 144 64
WIRE 384 64 384 -80
WIRE 384 64 352 64
WIRE 432 64 384 64
WIRE 432 96 432 64
WIRE -128 208 -128 64
WIRE 96 208 -128 208
WIRE 384 208 384 64
WIRE 384 208 176 208
FLAG 432 96 0
FLAG -128 64 B
FLAG 144 -80 C
FLAG 144 64 D
FLAG 384 64 A
SYMBOL voltage 80 208 R270
WINDOW 0 32 56 VTop 2
WINDOW 3 -32 56 VBottom 2
WINDOW 123 -60 56 VBottom 2
WINDOW 39 0 0 Left 0
SYMATTR InstName Vg1
SYMATTR Value 5
SYMATTR Value2 AC 5 0
SYMBOL res 32 48 R90
WINDOW 0 0 56 VBottom 2
WINDOW 3 32 56 VTop 2
SYMATTR InstName R1
SYMATTR Value 1
SYMBOL cap 16 -96 R90
WINDOW 0 0 32 VBottom 2
WINDOW 3 32 32 VTop 2
SYMATTR InstName C1
SYMATTR Value 10E-6
SYMBOL res 128 -64 R0
SYMATTR InstName R2
SYMATTR Value 2
SYMBOL ind 368 48 R90
WINDOW 0 5 56 VBottom 2
WINDOW 3 32 56 VTop 2
SYMATTR InstName L1
SYMATTR Value 1E-3
SYMBOL f 352 -80 R90
WINDOW 0 -32 40 VBottom 2
WINDOW 3 32 40 VTop 2
WINDOW 123 -4 40 VBottom 2
SYMATTR InstName f1
SYMATTR Value V1
SYMATTR Value2 2
SYMBOL voltage 32 64 R270
WINDOW 0 32 56 VTop 2
WINDOW 3 -32 56 VBottom 2
SYMATTR InstName V1
SYMATTR Value 0
TEXT -72 272 Left 2 !.ac list 500
TEXT -120 -288 Left 2 !.meas AC Pg1_dB FIND re(v(b)*conj(i(vg1))) at 50hz
TEXT -120 -248 Left 2 !.meas Pg1 FIND 10**(Pg1_dB/20) at 50hz
TEXT 528 -312 Left 2 ;RUN\nCtl-L to open log\nPg1 is the average power ABSORBED by Vg1\nNB: phasor magnitudes <-> RMS value of corresponding sinusoids
